WS_Concat='"C:\GitHub_msdos41\CATIA_CAA_V5\Code\WSTrainingTJM\." "C:\CATIA\B19\."'
RTViewDataListPath='C:\GitHub_msdos41\CATIA_CAA_V5\Code\WSTrainingTJM\.\FMPublic\various\win_b64\ModPubExcel.m\module.data'
MKMK_DEVSTAGE=''
BUILT_OBJECT_TYPE='SHARED LIBRARY'
MKMK_BSCMAKE=''
WSEKEY='M_ModPubExcel'
MOD_Included='M_ModPubExcel'
MODNAME='ModPubExcel'
CONTNAME='ModPubExcel'
FWmkHLpath='C:\GitHub_msdos41\CATIA_CAA_V5\Code\WSTrainingTJM\.\FMPublic\IdentityCard\Objects\win_b64\.mkHLpath.mk'
M_JS0GROUP='mkSharedLibrary "C:\CATIA\B19\.\System\JS0GROUP.m" JS0GROUP JS0GROUP - -'
WIZARD_LINK_MODULES='JS0GROUP JS0GROUP'
MKMK_WARNING=''
FWDNAME='FMPublic'
MKMK_ZIPJAVASOURCE=''
GPrivate='C:\GitHub_msdos41\CATIA_CAA_V5\Code\WSTrainingTJM\.\FMPublic\PrivateGenerated\win_b64'
IPublic='C:\GitHub_msdos41\CATIA_CAA_V5\Code\WSTrainingTJM\.\FMPublic\PublicInterfaces'
IPrivate='C:\GitHub_msdos41\CATIA_CAA_V5\Code\WSTrainingTJM\.\FMPublic\PrivateInterfaces'
GPublic='C:\GitHub_msdos41\CATIA_CAA_V5\Code\WSTrainingTJM\.\FMPublic\PublicGenerated\win_b64'
MKMK_DEBUGEDITANDCONTINUE=''
GProtected='C:\GitHub_msdos41\CATIA_CAA_V5\Code\WSTrainingTJM\.\FMPublic\ProtectedGenerated\win_b64'
WSROOT='C:\GitHub_msdos41\CATIA_CAA_V5\Code\WSTrainingTJM\.'
IProtected='C:\GitHub_msdos41\CATIA_CAA_V5\Code\WSTrainingTJM\.\FMPublic\ProtectedInterfaces'
MKMK_DATA_VERSION='1.0.0'
STEPS_TO_CLEAN=''
NAME='C:\GitHub_msdos41\CATIA_CAA_V5\Code\WSTrainingTJM\.\FMPublic\ModPubExcel.m\Objects\win_b64\.mkdata.mk'
STEPS_TO_BUILD='grammar1st grammar2nd sourcecheck caacheck typelibgrammar compilation sourceruler globalresource cpponly link1st link2nd'
FWNAME='FMPublic'
MODPATH='C:\GitHub_msdos41\CATIA_CAA_V5\Code\WSTrainingTJM\.\FMPublic\ModPubExcel.m'
FW_AllPreq='Mainwin,20DD2151;SpecialAPI,20DD2151;System,21EE2151;'
FW_INCPATH='"C:\GitHub_msdos41\CATIA_CAA_V5\Code\WSTrainingTJM\.\FMPublic\PrivateInterfaces" "C:\GitHub_msdos41\CATIA_CAA_V5\Code\WSTrainingTJM\.\FMPublic\PrivateGenerated\win_b64" "C:\GitHub_msdos41\CATIA_CAA_V5\Code\WSTrainingTJM\.\FMPublic\ProtectedInterfaces" "C:\GitHub_msdos41\CATIA_CAA_V5\Code\WSTrainingTJM\.\FMPublic\ProtectedGenerated\win_b64" "C:\GitHub_msdos41\CATIA_CAA_V5\Code\WSTrainingTJM\.\FMPublic\PublicInterfaces" "C:\GitHub_msdos41\CATIA_CAA_V5\Code\WSTrainingTJM\.\FMPublic\PublicGenerated\win_b64"'
M_ModPubExcel='mkSharedLibrary "C:\GitHub_msdos41\CATIA_CAA_V5\Code\WSTrainingTJM\.\FMPublic\ModPubExcel.m" ModPubExcel ModPubExcel - -'
WSENAME_msg='FMPublic\ModPubExcel.m'
MOD_Container='ModPubExcel.m'
MOD_LinkWith='M_JS0GROUP'
REAL_LINK_WITH='JS0GROUP'
MKMK_DEBUG='YES'
WSPATH='C:\GitHub_msdos41\CATIA_CAA_V5\Code\WSTrainingTJM\.'
GLocal='C:\GitHub_msdos41\CATIA_CAA_V5\Code\WSTrainingTJM\.\FMPublic\ModPubExcel.m\LocalGenerated\win_b64'
ILocal='C:\GitHub_msdos41\CATIA_CAA_V5\Code\WSTrainingTJM\.\FMPublic\ModPubExcel.m\LocalInterfaces'
FWCOMPANYNAME='""'
MOD_INCPATH='"C:\GitHub_msdos41\CATIA_CAA_V5\Code\WSTrainingTJM\.\FMPublic\ModPubExcel.m\src" "C:\GitHub_msdos41\CATIA_CAA_V5\Code\WSTrainingTJM\.\FMPublic\ModPubExcel.m\LocalInterfaces" "C:\GitHub_msdos41\CATIA_CAA_V5\Code\WSTrainingTJM\.\FMPublic\ModPubExcel.m\LocalGenerated\win_b64"'
FWPATH='C:\GitHub_msdos41\CATIA_CAA_V5\Code\WSTrainingTJM\.\FMPublic'
F_FMPublic='mkFramework "C:\GitHub_msdos41\CATIA_CAA_V5\Code\WSTrainingTJM\.\FMPublic" FMPublic FMPublic - -'
FWIDENT='fmpublic'
LINK_WITH='JS0GROUP JS0GROUP'
